Version 4
SHEET 1 880 680
WIRE 80 0 -48 0
WIRE 176 0 80 0
WIRE 176 16 176 0
WIRE 80 32 80 0
WIRE 128 32 80 32
WIRE -48 64 -48 0
WIRE 176 160 176 112
WIRE -48 256 -48 144
WIRE 176 256 176 240
WIRE 176 256 -48 256
WIRE -48 288 -48 256
WIRE 0 0 0 0
FLAG -48 288 0
SYMBOL nds332p 128 112 M180
SYMATTR InstName U1
SYMBOL Misc\\battery -48 48 R0
WINDOW 123 0 0 Left 2
WINDOW 39 0 0 Left 2
SYMATTR InstName V1
SYMATTR Value 4.2
SYMBOL res 160 144 R0
SYMATTR InstName R1
SYMATTR Value 420
TEXT -82 312 Left 2 !.tran 0 5 0
