Version 4
SHEET 1 880 680
WIRE 176 0 -96 0
WIRE 176 16 176 0
WIRE -96 80 -96 0
WIRE 176 144 176 96
WIRE -96 192 -96 160
WIRE -48 192 -96 192
WIRE 64 192 32 192
WIRE 96 192 64 192
WIRE 64 208 64 192
WIRE -96 320 -96 192
WIRE 64 320 64 288
WIRE 64 320 -96 320
WIRE 176 320 176 240
WIRE 176 320 64 320
WIRE -96 352 -96 320
FLAG -96 352 0
SYMBOL EXTRA\\Philips\\NMOSFET\\2N7002 144 192 R0
SYMATTR InstName U1
SYMBOL res 160 0 R0
SYMATTR InstName R1
SYMATTR Value 330
SYMBOL Misc\\battery -96 64 R0
WINDOW 123 0 0 Left 2
WINDOW 39 0 0 Left 2
SYMATTR InstName V1
SYMATTR Value 3.3
SYMBOL voltage 48 192 R90
WINDOW 0 -32 56 VBottom 2
WINDOW 3 32 56 Invisible 2
WINDOW 123 0 0 Left 2
WINDOW 39 0 0 Left 2
SYMATTR InstName V2
SYMATTR Value PULSE(0 3.3 1 0.1 0.1 1)
SYMBOL res 48 192 R0
SYMATTR InstName R2
SYMATTR Value 100K
TEXT -130 376 Left 2 !.tran 0 3 0
