Version 4
SHEET 1 880 680
WIRE 192 0 -208 0
WIRE 304 0 192 0
WIRE 192 16 192 0
WIRE 304 112 304 0
WIRE 192 128 192 96
WIRE 256 128 192 128
WIRE -208 144 -208 0
WIRE 192 240 192 128
WIRE 304 240 304 208
WIRE 448 240 304 240
WIRE -208 288 -208 224
WIRE -112 288 -208 288
WIRE 32 288 -32 288
WIRE 112 288 32 288
WIRE 448 288 448 240
WIRE 32 320 32 288
WIRE -208 432 -208 288
WIRE 32 432 32 400
WIRE 32 432 -208 432
WIRE 192 432 192 336
WIRE 192 432 32 432
WIRE 448 432 448 368
WIRE 448 432 192 432
WIRE -208 464 -208 432
FLAG -208 464 0
SYMBOL SBORKA\\MOS\\nds332p 256 208 M180
SYMATTR InstName U2
SYMBOL res 176 0 R0
SYMATTR InstName R1
SYMATTR Value 100K
SYMBOL res 48 416 R180
WINDOW 0 36 76 Left 2
WINDOW 3 36 40 Left 2
SYMATTR InstName R2
SYMATTR Value 100K
SYMBOL Misc\\battery -208 128 R0
WINDOW 123 0 0 Left 2
WINDOW 39 0 0 Left 2
SYMATTR InstName V1
SYMATTR Value 3.3
SYMBOL voltage -16 288 R90
WINDOW 0 -32 56 VBottom 2
WINDOW 3 32 56 Invisible 2
WINDOW 123 0 0 Left 2
WINDOW 39 0 0 Left 2
SYMATTR InstName V2
SYMATTR Value PULSE(0 3.3 1 0.1 0.1 1)
SYMBOL res 432 272 R0
SYMATTR InstName R3
SYMATTR Value 330
SYMBOL EXTRA\\Philips\\NMOSFET\\2N7002 160 288 R0
SYMATTR InstName U1
TEXT -242 488 Left 2 !.tran 0 3 0
