Version 4
SHEET 1 880 756
WIRE 192 16 -96 16
WIRE 368 16 192 16
WIRE 192 32 192 16
WIRE -96 96 -96 16
WIRE 368 144 368 16
WIRE 192 160 192 112
WIRE 320 160 192 160
WIRE 192 272 192 160
WIRE 144 288 -16 288
WIRE 368 288 368 240
WIRE -16 336 -16 288
WIRE 48 336 -16 336
WIRE 144 336 128 336
WIRE -96 400 -96 176
WIRE -16 400 -16 336
WIRE -16 400 -96 400
WIRE 192 400 192 352
WIRE 192 400 -16 400
WIRE 368 400 368 368
WIRE 368 400 192 400
WIRE -96 432 -96 400
FLAG -96 432 0
SYMBOL nds332p 320 240 M180
SYMATTR InstName U1
SYMBOL res 176 16 R0
SYMATTR InstName R1
SYMATTR Value 10K
SYMBOL res 352 272 R0
SYMATTR InstName R2
SYMATTR Value 420
SYMBOL voltage 144 336 R90
WINDOW 123 0 0 Left 2
WINDOW 39 0 0 Left 2
SYMATTR InstName V2
SYMATTR Value PULSE(0 1.5 1 0.01 0.01 5 10 1)
SYMBOL Misc\\battery -96 80 R0
WINDOW 123 0 0 Left 2
WINDOW 39 0 0 Left 2
SYMATTR InstName V1
SYMATTR Value 4.2
SYMBOL sw 192 256 R0
SYMATTR InstName S1
TEXT -128 672 Left 2 !.tran 0 5 0
TEXT 96 672 Left 2 !.MODEL SW SW RON = 1 VT = 0 VH = 0
