Version 4
SHEET 1 880 712
WIRE 0 0 -224 0
WIRE 112 0 0 0
WIRE 288 0 112 0
WIRE 0 64 0 0
WIRE -224 112 -224 0
WIRE 112 128 112 0
WIRE 0 208 0 144
WIRE 0 208 -32 208
WIRE 64 208 0 208
WIRE 288 224 288 0
WIRE 112 240 112 224
WIRE 240 240 112 240
WIRE 0 272 0 208
WIRE -224 288 -224 192
WIRE -48 288 -224 288
WIRE 112 288 112 240
WIRE -224 336 -224 288
WIRE -176 336 -224 336
WIRE -48 336 -96 336
WIRE 288 336 288 320
WIRE 352 336 288 336
WIRE 288 352 288 336
WIRE 0 432 0 352
WIRE 112 432 112 368
WIRE -224 448 -224 336
WIRE 288 480 288 432
FLAG 112 432 0
FLAG -224 448 0
FLAG 288 480 0
FLAG 0 432 0
FLAG -32 208 RESET
IOPIN -32 208 In
FLAG 352 336 POWER
IOPIN 352 336 Out
SYMBOL res 96 272 R0
SYMATTR InstName R1
SYMATTR Value 100K
SYMBOL res -16 48 R0
SYMATTR InstName R2
SYMATTR Value 100K
SYMBOL Misc\\battery -224 96 R0
WINDOW 123 0 0 Left 2
WINDOW 39 0 0 Left 2
SYMATTR InstName V1
SYMATTR Value 3.3
SYMBOL sw 0 256 R0
SYMATTR InstName S1
SYMBOL voltage -80 336 R90
WINDOW 0 24 96 Left 2
WINDOW 3 -404 -235 VRight 2
WINDOW 123 0 0 Left 2
WINDOW 39 0 0 Left 2
SYMATTR InstName V2
SYMATTR Value PULSE(0 1 1 0.1 0.1 1.5 0 1)
SYMBOL res 272 336 R0
SYMATTR InstName R3
SYMATTR Value 330
SYMBOL SBORKA\\MOS\\nds332p 240 320 M180
SYMATTR InstName U1
SYMBOL Misc\\2N7002 64 128 R0
SYMATTR InstName U2
TEXT -138 -104 Left 2 !.tran 0 3 0
TEXT -144 -32 Left 2 !.MODEL SW SW RON = 1 VT = 0 VH = 0
