Version 4
SHEET 1 880 712
WIRE 0 0 -224 0
WIRE 144 0 0 0
WIRE 288 0 144 0
WIRE 0 16 0 0
WIRE -224 128 -224 0
WIRE 144 128 144 0
WIRE 0 144 0 96
WIRE 96 144 0 144
WIRE 0 208 0 144
WIRE 0 208 -32 208
WIRE 288 224 288 0
WIRE 144 240 144 224
WIRE 240 240 144 240
WIRE 0 288 0 208
WIRE 144 288 144 240
WIRE -128 304 -160 304
WIRE -16 304 -48 304
WIRE -160 336 -160 304
WIRE 288 336 288 320
WIRE 352 336 288 336
WIRE 288 352 288 336
WIRE 0 432 0 320
WIRE -224 448 -224 160
WIRE -160 448 -160 416
WIRE 144 464 144 368
WIRE 288 480 288 432
FLAG -224 448 0
FLAG 288 480 0
FLAG 0 432 0
FLAG -32 208 RESET
IOPIN -32 208 In
FLAG 352 336 POWER
IOPIN 352 336 Out
FLAG 144 464 0
FLAG -160 448 0
SYMBOL res -16 0 R0
SYMATTR InstName R1
SYMATTR Value 100K
SYMBOL voltage -160 320 R0
WINDOW 0 24 96 Left 2
WINDOW 3 277 -388 Right 2
WINDOW 123 0 0 Left 2
WINDOW 39 0 0 Left 2
SYMATTR InstName V2
SYMATTR Value PULSE(0 3.3 1 0.1 0.1 1.5 3 2)
SYMBOL res 272 336 R0
SYMATTR InstName R3
SYMATTR Value 330
SYMBOL SBORKA\\MOS\\nds332p 240 320 M180
SYMATTR InstName U1
SYMBOL SBORKA\\MOS\\nds332p 96 224 M180
SYMATTR InstName U2
SYMBOL res 128 272 R0
SYMATTR InstName R2
SYMATTR Value 100K
SYMBOL MiniSyms4\\voltage- -224 144 R0
WINDOW 3 7 17 Left 2
WINDOW 123 0 0 Left 2
WINDOW 39 0 0 Left 2
SYMATTR InstName V3
SYMATTR Value 3.3
SYMBOL MiniSyms4\\npn- -16 304 R0
SYMATTR InstName Q1
SYMBOL res -32 288 R90
WINDOW 0 0 56 VBottom 2
WINDOW 3 32 56 VTop 2
SYMATTR InstName R4
SYMATTR Value 10K
TEXT -136 -104 Left 2 !.tran 0 6 0
TEXT -144 -32 Left 2 !.MODEL SW SW RON = 1 VT = 1 VH = 0
